Circuit: * C:\Users\harun\OneDrive\Desktop\Harun\belge\Okul\3. SINIF\3. SINIF BAHAR\EE316\LTSpice\devre.asc

Direct Newton iteration failed to find .op point.  (Use ".option noopiter" to skip.)
Starting Gmin stepping
Gmin = 10
Gmin = 1.07374
vernier = 0.5
vernier = 0.25
vernier = 0.125
vernier = 0.0625
Gmin = 1.08884
vernier = 0.03125
vernier = 0.015625
Gmin = 1.03122
vernier = 0.0078125
vernier = 0.0104167
vernier = 0.00520833
Gmin = 1.01988
vernier = 0.00260417
vernier = 0.00347222
Gmin = 1.01305
vernier = 0.00173611
vernier = 0.00231481
vernier = 0.00115741
Gmin = 1.01085
vernier = 0.00154321
vernier = 0.000771604
Gmin = 1.00871
vernier = 0.00102881
vernier = 0.000514403
Gmin = 1.00715
vernier = 0.00068587
vernier = 0.000514403
Gmin = 1.0059
vernier = 0.00068587
vernier = 0.000514402
Gmin = 0
Gmin stepping failed

Starting source stepping with srcstepmethod=0
Source Step = 3.0303%
Source Step = 33.3333%
Source Step = 63.6364%
Source Step = 93.9394%
Source stepping succeeded in finding the operating point.


Date: Sun Sep 24 09:58:31 2023
Total elapsed time: 0.620 seconds.

tnom = 27
temp = 27
method = modified trap
totiter = 9383
traniter = 3003
tranpoints = 1067
accept = 1059
rejected = 8
matrix size = 75
fillins = 73
solver = Normal
Thread vector: 13.8/6.2[9] 5.3/2.7[9] 4.2/2.5[6] 0.3/1.2[1]  2592/500
Matrix Compiler1: 7.98 KB object code size  1.7/0.8/[0.5]
Matrix Compiler2: 9.14 KB object code size  0.8/1.2/[0.5]

